$DATA1 SOURCE='HSPICE' VERSION='L-2016.06-SP2-1 linux64' PARAM_COUNT=0
.TITLE '* nor2_1x_bench.sp'
 tpdrb            tpdfb            tpdb             tpdra           
 tpdfa            tpda             trise            tfall           
 temper           alter#          
  1.388e-10        1.884e-10        1.636e-10        1.638e-10      
  2.032e-10        1.835e-10        2.475e-10        1.429e-10      
   25.0000        1               
